Version 4
SHEET 1 880 680
WIRE 288 0 224 0
WIRE 400 0 288 0
WIRE 288 16 288 0
WIRE 400 32 400 0
WIRE 224 112 224 80
WIRE 288 112 224 112
WIRE 400 112 400 96
WIRE 400 112 288 112
WIRE -16 144 -112 144
WIRE 128 144 48 144
WIRE 240 144 128 144
WIRE -112 176 -112 144
WIRE 240 192 192 192
WIRE 192 224 192 192
FLAG 288 208 0
FLAG 512 192 0
FLAG 512 112 Vcc
FLAG 288 0 Vcc
FLAG -112 256 0
FLAG 192 304 0
FLAG 128 64 0
SYMBOL Mosfets\\BF998 240 112 R0
SYMATTR InstName U1
SYMBOL voltage 512 96 R0
SYMATTR InstName V1
SYMATTR Value 5
SYMBOL cap 48 128 R90
WINDOW 0 0 32 VBottom 0
WINDOW 3 32 32 VTop 0
SYMATTR InstName C1
SYMATTR Value 10n
SYMBOL voltage -112 160 R0
WINDOW 123 24 132 Left 0
WINDOW 39 24 160 Left 0
SYMATTR InstName V2
SYMATTR Value SINE(0 10u 14050000 0)
SYMATTR Value2 AC 1m 0
SYMATTR SpiceLine Rser=50
SYMBOL res 112 48 R0
SYMATTR InstName R1
SYMATTR Value 100k
SYMBOL cap 384 32 R0
SYMATTR InstName C2
SYMATTR Value 47p
SYMBOL res 208 -16 R0
SYMATTR InstName R2
SYMATTR Value 1k
SYMBOL voltage 192 208 R0
WINDOW 123 24 132 Left 0
WINDOW 39 24 160 Left 0
SYMATTR InstName V3
SYMATTR Value SINE(0 3.3 14040000 0)
SYMATTR Value2 AC 3.3 0
SYMATTR SpiceLine Rser=330
TEXT -146 396 Left 0 !.tran 0 100u 0 1n
TEXT 256 456 Left 0 !.NET V2
