Version 4
SHEET 1 1016 680
WIRE 368 -192 368 -208
WIRE 368 -192 320 -192
WIRE 320 -80 320 -192
WIRE -16 -16 -32 -16
WIRE 96 -16 64 -16
WIRE 144 -16 96 -16
WIRE 224 -16 224 -48
WIRE -32 16 -32 -16
WIRE 96 16 96 -16
WIRE 320 48 320 0
WIRE 448 48 320 48
WIRE 528 48 512 48
WIRE 608 48 528 48
WIRE 816 48 688 48
WIRE 528 64 528 48
WIRE 320 80 320 48
WIRE 816 80 816 48
WIRE 848 80 816 80
WIRE 848 96 848 80
WIRE -352 112 -448 112
WIRE -192 112 -272 112
WIRE -16 112 -192 112
WIRE 96 112 96 96
WIRE 96 112 48 112
WIRE 272 112 96 112
WIRE -192 128 -192 112
WIRE -448 144 -448 112
WIRE 320 192 320 176
WIRE 400 192 320 192
WIRE 400 208 400 192
WIRE -16 272 -128 272
WIRE 96 272 48 272
WIRE 272 272 272 160
WIRE 272 272 96 272
WIRE 320 288 320 192
WIRE 320 288 304 288
WIRE 400 288 400 272
WIRE 400 288 320 288
WIRE -128 304 -128 272
WIRE 304 352 304 288
WIRE -16 384 -32 384
WIRE 96 384 96 352
WIRE 96 384 64 384
WIRE 144 384 96 384
WIRE 224 384 224 352
WIRE -32 416 -32 384
FLAG -448 224 0
FLAG -128 384 0
FLAG 304 352 0
FLAG 368 -208 Vcc
FLAG -304 -96 0
FLAG -304 -176 Vcc
FLAG -32 416 0
FLAG 224 352 Vcc
FLAG -32 16 0
FLAG 224 -48 Vcc
FLAG 848 176 0
FLAG 256 -192 0
FLAG 528 128 0
FLAG -192 192 0
SYMBOL voltage -448 128 R0
WINDOW 3 -282 -3 Left 0
WINDOW 123 -175 65 Left 0
WINDOW 39 -175 37 Left 0
SYMATTR InstName V1
SYMATTR Value SINE(0 10u 14400000 0)
SYMATTR Value2 AC 1 0
SYMATTR SpiceLine Rser=50
SYMBOL Mosfets\\BF998 272 80 R0
SYMATTR InstName U1
SYMBOL voltage -128 288 R0
WINDOW 3 -282 -3 Left 0
WINDOW 123 -175 70 Left 0
WINDOW 39 -175 37 Left 0
SYMATTR InstName V2
SYMATTR Value SINE(0 1 14050000 0)
SYMATTR SpiceLine Rser=50
SYMBOL cap 48 96 R90
WINDOW 0 0 32 VBottom 0
WINDOW 3 32 32 VTop 0
SYMATTR InstName C2
SYMATTR Value 10n
SYMBOL cap 48 256 R90
WINDOW 0 0 32 VBottom 0
WINDOW 3 32 32 VTop 0
SYMATTR InstName C3
SYMATTR Value 10n
SYMBOL voltage -304 -192 R0
WINDOW 123 0 0 Left 0
WINDOW 39 24 44 Left 0
SYMATTR InstName V3
SYMATTR Value 5
SYMATTR SpiceLine Rser=1
SYMBOL res 80 368 R90
WINDOW 0 0 56 VBottom 0
WINDOW 3 32 56 VTop 0
SYMATTR InstName R5
SYMATTR Value 1k
SYMBOL res 240 368 R90
WINDOW 0 0 56 VBottom 0
WINDOW 3 32 56 VTop 0
SYMATTR InstName R6
SYMATTR Value 4k7
SYMBOL ind 80 256 R0
SYMATTR InstName L1
SYMATTR Value 100
SYMBOL ind 80 0 R0
SYMATTR InstName L2
SYMATTR Value 100
SYMBOL res 80 -32 R90
WINDOW 0 0 56 VBottom 0
WINDOW 3 32 56 VTop 0
SYMATTR InstName R3
SYMATTR Value 1k
SYMBOL res 240 -32 R90
WINDOW 0 0 56 VBottom 0
WINDOW 3 32 56 VTop 0
SYMATTR InstName R4
SYMATTR Value 10k
SYMBOL cap 320 -208 R90
WINDOW 0 0 32 VBottom 0
WINDOW 3 32 32 VTop 0
SYMATTR InstName C4
SYMATTR Value 1
SYMBOL res 832 80 R0
SYMATTR InstName Rout
SYMATTR Value 50
SYMBOL ind 304 -96 R0
SYMATTR InstName L3
SYMATTR Value 100
SYMBOL cap 512 32 R90
WINDOW 0 0 32 VBottom 0
WINDOW 3 32 32 VTop 0
SYMATTR InstName C1
SYMATTR Value 10
SYMBOL cap 512 64 R0
SYMATTR InstName C5
SYMATTR Value 28p
SYMBOL ind 704 32 R90
WINDOW 0 5 56 VBottom 0
WINDOW 3 32 56 VTop 0
SYMATTR InstName L4
SYMATTR Value 4.5
SYMBOL ind -368 128 R270
WINDOW 0 32 56 VTop 0
WINDOW 3 5 56 VBottom 0
SYMATTR InstName L5
SYMATTR Value 22.58
SYMBOL cap -208 128 R0
SYMATTR InstName C6
SYMATTR Value 10n
TEXT -802 312 Left 0 !.ac lin 1000 14Meg 15Meg
TEXT -56 512 Left 0 !*.step param L_comp 0.1p 10p 0.5p
TEXT -232 432 Left 0 !.NET I(R1) V1
TEXT -480 472 Left 0 !.param R1 50\n.param R2 10538*cos(-80.9697)\n.param Q 40\n.param A sqrt((R1*(1+Q*Q)/R2)-1)\n.param B R1*(1+Q*Q)
