Version 4
SHEET 1 880 680
FLAG 192 208 0
FLAG 128 160 0
FLAG -32 224 0
FLAG -32 144 V+
FLAG 192 112 V+
SYMBOL voltage -32 128 R0
SYMATTR InstName V1
SYMBOL Bipolar\\BF241 128 112 R0
SYMATTR InstName Q1
SYMATTR Value QBF240
TEXT 128 216 Left 0 !.tran 0 1m 0
